D3h
 OpenBabel03112416543D

  4  3  0  0  0  0  0  0  0  0999 V2000
   -0.0717   -0.3135    1.1561 F  0  0  0  0  0  0  0  0  0  0  0  0
    0.0000    0.0000    0.0000 B  0  0  0  0  0  0  0  0  0  0  0  0
    0.4329   -0.7761   -0.8063 F  0  0  0  0  0  0  0  0  0  0  0  0
   -0.3612    1.0896   -0.3498 F  0  0  0  0  0  0  0  0  0  0  0  0
  1  2  1  0  0  0  0
  2  3  1  0  0  0  0
  2  4  1  0  0  0  0
M  END
