D8h
 OpenBabel03112417023D

 16 16  0  0  0  0  0  0  0  0999 V2000
    0.0000   -1.8484    0.0526 C  0  0  0  0  0  0  0  0  0  0  0  0
   -0.0000   -1.3441   -1.2699 C  0  0  0  0  0  0  0  0  0  0  0  0
    0.0000   -0.0525   -1.8484 C  0  0  0  0  0  0  0  0  0  0  0  0
    0.0000    1.2699   -1.3441 C  0  0  0  0  0  0  0  0  0  0  0  0
   -0.0000    1.8484   -0.0526 C  0  0  0  0  0  0  0  0  0  0  0  0
    0.0000    1.3441    1.2699 C  0  0  0  0  0  0  0  0  0  0  0  0
   -0.0000    0.0525    1.8484 C  0  0  0  0  0  0  0  0  0  0  0  0
   -0.0000   -1.2699    1.3441 C  0  0  0  0  0  0  0  0  0  0  0  0
    0.0000   -2.9483    0.0837 H  0  0  0  0  0  0  0  0  0  0  0  0
   -0.0000   -2.1439   -2.0255 H  0  0  0  0  0  0  0  0  0  0  0  0
   -0.0000   -0.0838   -2.9483 H  0  0  0  0  0  0  0  0  0  0  0  0
   -0.0001    2.0255   -2.1440 H  0  0  0  0  0  0  0  0  0  0  0  0
   -0.0000    2.9483   -0.0837 H  0  0  0  0  0  0  0  0  0  0  0  0
    0.0000    2.1439    2.0255 H  0  0  0  0  0  0  0  0  0  0  0  0
    0.0000    0.0838    2.9483 H  0  0  0  0  0  0  0  0  0  0  0  0
    0.0001   -2.0255    2.1440 H  0  0  0  0  0  0  0  0  0  0  0  0
  1  2  1  0  0  0  0
  1  8  2  0  0  0  0
  1  9  1  0  0  0  0
  2  3  2  0  0  0  0
  2 10  1  0  0  0  0
  3  4  1  0  0  0  0
  3 11  1  0  0  0  0
  4  5  2  0  0  0  0
  4 12  1  0  0  0  0
  5  6  1  0  0  0  0
  5 13  1  0  0  0  0
  6  7  2  0  0  0  0
  6 14  1  0  0  0  0
  7  8  1  0  0  0  0
  7 15  1  0  0  0  0
  8 16  1  0  0  0  0
M  END
