D7h
 OpenBabel03112417013D

 14 14  0  0  0  0  0  0  0  0999 V2000
    1.6115    0.0000    0.0000 C   0  0  0  0  0  0  0  0  0  0  0  0
    1.0048   -1.2599    0.0000 C   0  0  0  0  0  0  0  0  0  0  0  0
   -0.3586   -1.5711    0.0000 C   0  0  0  0  0  0  0  0  0  0  0  0
   -1.4519   -0.6992    0.0000 C   0  0  0  0  0  0  0  0  0  0  0  0
   -1.4519    0.6992    0.0000 C   0  0  0  0  0  0  0  0  0  0  0  0
   -0.3586    1.5711    0.0000 C   0  0  0  0  0  0  0  0  0  0  0  0
    1.0048    1.2599    0.0000 C   0  0  0  0  0  3  0  0  0  0  0  0
    2.6988    0.0000    0.0000 H   0  0  0  0  0  0  0  0  0  0  0  0
    1.6827   -2.1100    0.0000 H   0  0  0  0  0  0  0  0  0  0  0  0
   -0.6005   -2.6311    0.0000 H   0  0  0  0  0  0  0  0  0  0  0  0
   -2.4315   -1.1710    0.0000 H   0  0  0  0  0  0  0  0  0  0  0  0
   -2.4315    1.1710    0.0000 H   0  0  0  0  0  0  0  0  0  0  0  0
   -0.6005    2.6311    0.0000 H   0  0  0  0  0  0  0  0  0  0  0  0
    1.6827    2.1100    0.0000 H   0  0  0  0  0  0  0  0  0  0  0  0
  1  2  2  0  0  0  0
  1  7  1  0  0  0  0
  1  8  1  0  0  0  0
  2  3  1  0  0  0  0
  2  9  1  0  0  0  0
  3  4  2  0  0  0  0
  3 10  1  0  0  0  0
  4  5  1  0  0  0  0
  4 11  1  0  0  0  0
  5  6  2  0  0  0  0
  5 12  1  0  0  0  0
  6  7  1  0  0  0  0
  6 13  1  0  0  0  0
  7 14  1  0  0  0  0
M  END
