T
 OpenBabel03112417103D

 17 16  0  0  0  0  0  0  0  0999 V2000
    0.0000    0.0000    0.0000 C   0  0  0  0  0  0  0  0  0  0  0  0
    0.8888    0.8888    0.8888 C   0  0  0  0  0  0  0  0  0  0  0  0
   -0.8888   -0.8888    0.8888 C   0  0  0  0  0  0  0  0  0  0  0  0
   -0.8888    0.8888   -0.8888 C   0  0  0  0  0  0  0  0  0  0  0  0
    0.8888   -0.8888   -0.8888 C   0  0  0  0  0  0  0  0  0  0  0  0
    1.7551    1.2613    0.3331 H   0  0  0  0  0  0  0  0  0  0  0  0
    0.3331    1.7551    1.2613 H   0  0  0  0  0  0  0  0  0  0  0  0
    1.2613    0.3331    1.7551 H   0  0  0  0  0  0  0  0  0  0  0  0
   -1.7551   -1.2613    0.3331 H   0  0  0  0  0  0  0  0  0  0  0  0
   -0.3331   -1.7551    1.2613 H   0  0  0  0  0  0  0  0  0  0  0  0
   -1.2613   -0.3331    1.7551 H   0  0  0  0  0  0  0  0  0  0  0  0
   -1.2613    0.3331   -1.7551 H   0  0  0  0  0  0  0  0  0  0  0  0
   -1.7551    1.2613   -0.3331 H   0  0  0  0  0  0  0  0  0  0  0  0
   -0.3331    1.7551   -1.2613 H   0  0  0  0  0  0  0  0  0  0  0  0
    0.3331   -1.7551   -1.2613 H   0  0  0  0  0  0  0  0  0  0  0  0
    1.2613   -0.3331   -1.7551 H   0  0  0  0  0  0  0  0  0  0  0  0
    1.7551   -1.2613   -0.3331 H   0  0  0  0  0  0  0  0  0  0  0  0
  1  3  1  0  0  0  0
  1  2  1  0  0  0  0
  2  7  1  0  0  0  0
  2  8  1  0  0  0  0
  3 10  1  0  0  0  0
  3 11  1  0  0  0  0
  4 13  1  0  0  0  0
  4  1  1  0  0  0  0
  5 17  1  0  0  0  0
  5  1  1  0  0  0  0
  6  2  1  0  0  0  0
  9  3  1  0  0  0  0
 12  4  1  0  0  0  0
 14  4  1  0  0  0  0
 15  5  1  0  0  0  0
 16  5  1  0  0  0  0
M  END
