Ih
 OpenBabel03112417173D

 40 50  0  0  1  0  0  0  0  0999 V2000
    1.5887   -1.4186    0.4565 C   0  0  2  0  0  0  0  0  0  0  0  0
    1.8446    1.0831    0.4112 C   0  0  1  0  0  0  0  0  0  0  0  0
   -0.6051   -1.9953   -0.6303 C   0  0  1  0  0  0  0  0  0  0  0  0
    0.5564    1.1759   -1.7472 C   0  0  1  0  0  0  0  0  0  0  0  0
    0.1910   -2.0526    0.7036 C   0  0  2  0  0  0  0  0  0  0  0  0
    0.3793    0.0000    2.1450 C   0  0  1  0  0  0  0  0  0  0  0  0
    1.7050   -0.1500    1.3473 C   0  0  1  0  0  0  0  0  0  0  0  0
   -1.8446   -1.0831   -0.4112 C   0  0  1  0  0  0  0  0  0  0  0  0
    1.6564   -0.9695   -1.0302 C   0  0  1  0  0  0  0  0  0  0  0  0
   -1.8145   -0.5767    1.0582 C   0  0  1  0  0  0  0  0  0  0  0  0
    0.3005   -1.3259   -1.7019 C   0  0  2  0  0  0  0  0  0  0  0  0
    1.8145    0.5767   -1.0582 C   0  0  2  0  0  0  0  0  0  0  0  0
    0.6051    1.9953    0.6303 C   0  0  2  0  0  0  0  0  0  0  0  0
   -0.3793   -0.0000   -2.1450 C   0  0  1  0  0  0  0  0  0  0  0  0
   -1.7050    0.1500   -1.3473 C   0  0  2  0  0  0  0  0  0  0  0  0
   -1.5887    1.4186   -0.4565 C   0  0  2  0  0  0  0  0  0  0  0  0
   -0.3005    1.3259    1.7019 C   0  0  1  0  0  0  0  0  0  0  0  0
   -0.1910    2.0526   -0.7036 C   0  0  2  0  0  0  0  0  0  0  0  0
   -0.5564   -1.1759    1.7472 C   0  0  1  0  0  0  0  0  0  0  0  0
   -1.6564    0.9695    1.0302 C   0  0  2  0  0  0  0  0  0  0  0  0
    2.3817   -2.1268    0.6843 H   0  0  0  0  0  0  0  0  0  0  0  0
    2.7653    1.6238    0.6164 H   0  0  0  0  0  0  0  0  0  0  0  0
    0.8342    1.7628   -2.6193 H   0  0  0  0  0  0  0  0  0  0  0  0
    0.5686    0.0000    3.2157 H   0  0  0  0  0  0  0  0  0  0  0  0
   -0.9071   -2.9913   -0.9450 H   0  0  0  0  0  0  0  0  0  0  0  0
   -2.7654   -1.6238   -0.6164 H   0  0  0  0  0  0  0  0  0  0  0  0
    0.2864   -3.0772    1.0548 H   0  0  0  0  0  0  0  0  0  0  0  0
    2.7203    0.8645   -1.5864 H   0  0  0  0  0  0  0  0  0  0  0  0
    0.4505   -1.9878   -2.5514 H   0  0  0  0  0  0  0  0  0  0  0  0
    0.9072    2.9913    0.9450 H   0  0  0  0  0  0  0  0  0  0  0  0
   -2.7203   -0.8645    1.5864 H   0  0  0  0  0  0  0  0  0  0  0  0
    2.5561   -0.2249    2.0198 H   0  0  0  0  0  0  0  0  0  0  0  0
   -0.2864    3.0772   -1.0548 H   0  0  0  0  0  0  0  0  0  0  0  0
    2.4832   -1.4534   -1.5444 H   0  0  0  0  0  0  0  0  0  0  0  0
   -2.3817    2.1268   -0.6843 H   0  0  0  0  0  0  0  0  0  0  0  0
   -0.5686   -0.0000   -3.2157 H   0  0  0  0  0  0  0  0  0  0  0  0
   -2.5561    0.2249   -2.0198 H   0  0  0  0  0  0  0  0  0  0  0  0
   -0.4505    1.9878    2.5514 H   0  0  0  0  0  0  0  0  0  0  0  0
   -2.4832    1.4535    1.5444 H   0  0  0  0  0  0  0  0  0  0  0  0
   -0.8342   -1.7628    2.6193 H   0  0  0  0  0  0  0  0  0  0  0  0
  1 21  1  1  0  0  0
  1  5  1  0  0  0  0
  1  7  1  0  0  0  0
  2 22  1  1  0  0  0
  2 13  1  0  0  0  0
  2  7  1  0  0  0  0
  3 25  1  6  0  0  0
  3  8  1  0  0  0  0
  3  5  1  0  0  0  0
  4 23  1  6  0  0  0
  4 12  1  0  0  0  0
  4 18  1  0  0  0  0
  5 27  1  1  0  0  0
  5 19  1  0  0  0  0
  6 24  1  1  0  0  0
  7 32  1  1  0  0  0
  7  6  1  0  0  0  0
  8 26  1  6  0  0  0
  8 10  1  0  0  0  0
  9 34  1  6  0  0  0
  9  1  1  0  0  0  0
 10 31  1  1  0  0  0
 10 19  1  0  0  0  0
 11 29  1  6  0  0  0
 11  9  1  0  0  0  0
 11  3  1  0  0  0  0
 12 28  1  6  0  0  0
 12  9  1  0  0  0  0
 12  2  1  0  0  0  0
 13 30  1  1  0  0  0
 13 17  1  0  0  0  0
 14 36  1  6  0  0  0
 14  4  1  0  0  0  0
 14 11  1  0  0  0  0
 14 15  1  0  0  0  0
 15 37  1  6  0  0  0
 15 16  1  0  0  0  0
 15  8  1  0  0  0  0
 16 35  1  6  0  0  0
 16 20  1  0  0  0  0
 17  6  1  0  0  0  0
 17 38  1  1  0  0  0
 18 33  1  6  0  0  0
 18 16  1  0  0  0  0
 18 13  1  0  0  0  0
 19  6  1  0  0  0  0
 19 40  1  1  0  0  0
 20 10  1  0  0  0  0
 20 39  1  1  0  0  0
 20 17  1  0  0  0  0
M  END
