C3v
 OpenBabel03112416363D

  4  3  0  0  0  0  0  0  0  0999 V2000
   -0.0353   -0.0440    0.0285 N   0  0  0  0  0  0  0  0  0  0  0  0
    0.2658    0.6496    0.6822 H   0  0  0  0  0  0  0  0  0  0  0  0
    0.7774   -0.4532   -0.3850 H   0  0  0  0  0  0  0  0  0  0  0  0
   -0.5522    0.4148   -0.6935 H   0  0  0  0  0  0  0  0  0  0  0  0
  1  2  1  0  0  0  0
  3  1  1  0  0  0  0
  4  1  1  0  0  0  0
M  END
