Td
 OpenBabel03112417133D

  4  6  0  0  0  0  0  0  0  0999 V2000
    0.7955    0.7955    0.7955 P   0  0  2  0  0  0  0  0  0  0  0  0
   -0.7955   -0.7955    0.7955 P   0  0  1  0  0  0  0  0  0  0  0  0
   -0.7955    0.7955   -0.7955 P   0  0  2  0  0  0  0  0  0  0  0  0
    0.7955   -0.7955   -0.7955 P   0  0  1  0  0  0  0  0  0  0  0  0
  1  2  1  0  0  0  0
  3  4  1  0  0  0  0
  3  1  1  0  0  0  0
  3  2  1  0  0  0  0
  4  1  1  0  0  0  0
  4  2  1  0  0  0  0
M  END
