C1
 OpenBabel03112416043D

  5  4  0  0  1  0  0  0  0  0999 V2000
    0.0000    0.0000    0.0000 C   0  0  2  0  0  0  0  0  0  0  0  0
    0.0000    0.0000    1.0890 H   0  0  0  0  0  0  0  0  0  0  0  0
    1.0267    0.0000   -0.3630 F   0  0  0  0  0  0  0  0  0  0  0  0
   -0.5134   -0.8892   -0.3630 Br  0  0  0  0  0  0  0  0  0  0  0  0
   -0.5134    0.8892   -0.3630 Cl  0  0  0  0  0  0  0  0  0  0  0  0
  1  2  1  1  0  0  0
  3  1  1  0  0  0  0
  4  1  1  0  0  0  0
  5  1  1  0  0  0  0
M  END
