C2h
 OpenBabel03112416323D

  6  5  0  0  0  0  0  0  0  0999 V2000
    2.1437    0.1015   -0.0002 Cl  0  0  0  0  0  0  0  0  0  0  0  0
   -2.1439   -0.1011   -0.0002 Cl  0  0  0  0  0  0  0  0  0  0  0  0
    0.5135   -0.4232    0.0002 C   0  0  0  0  0  0  0  0  0  0  0  0
   -0.5132    0.4227    0.0002 C   0  0  0  0  0  0  0  0  0  0  0  0
    0.4242   -1.5014    0.0001 H   0  0  0  0  0  0  0  0  0  0  0  0
   -0.4237    1.5009    0.0001 H   0  0  0  0  0  0  0  0  0  0  0  0
  1  3  1  0  0  0  0
  2  4  1  0  0  0  0
  3  4  2  0  0  0  0
  5  3  1  0  0  0  0
  6  4  1  0  0  0  0
M  END
