C3
 OpenBabel03112416303D

 22 21  0  0  0  0  0  0  0  0999 V2000
    2.2543    0.6631   -0.8218 C   0  0  0  0  0  0  0  0  0  0  0  0
    1.4405    0.0967    0.3248 C   0  0  0  0  0  0  0  0  0  0  0  0
   -0.0015   -0.0219   -0.0424 N   0  0  0  0  0  0  0  0  0  0  0  0
   -0.7585   -0.8861    0.9107 C   0  0  0  0  0  0  0  0  0  0  0  0
   -0.3055   -2.3299    0.8214 C   0  0  0  0  0  0  0  0  0  0  0  0
   -0.6476    1.3101   -0.2333 C   0  0  0  0  0  0  0  0  0  0  0  0
   -1.9811    1.1772   -0.9417 C   0  0  0  0  0  0  0  0  0  0  0  0
    3.2904    0.8461   -0.5118 H   0  0  0  0  0  0  0  0  0  0  0  0
    1.8320    1.6200   -1.1731 H   0  0  0  0  0  0  0  0  0  0  0  0
    2.2812   -0.0158   -1.6838 H   0  0  0  0  0  0  0  0  0  0  0  0
    1.5734    0.7178    1.2372 H   0  0  0  0  0  0  0  0  0  0  0  0
    1.7899   -0.9275    0.5876 H   0  0  0  0  0  0  0  0  0  0  0  0
   -1.8351   -0.7937    0.6418 H   0  0  0  0  0  0  0  0  0  0  0  0
   -0.6623   -0.5143    1.9540 H   0  0  0  0  0  0  0  0  0  0  0  0
   -0.5430   -2.7776   -0.1521 H   0  0  0  0  0  0  0  0  0  0  0  0
   -0.7907   -2.9395    1.5935 H   0  0  0  0  0  0  0  0  0  0  0  0
    0.7859   -2.4125    0.9612 H   0  0  0  0  0  0  0  0  0  0  0  0
    0.0585    1.9257   -0.8355 H   0  0  0  0  0  0  0  0  0  0  0  0
   -0.7758    1.8377    0.7368 H   0  0  0  0  0  0  0  0  0  0  0  0
   -1.8672    0.8152   -1.9715 H   0  0  0  0  0  0  0  0  0  0  0  0
   -2.4976    2.1439   -0.9857 H   0  0  0  0  0  0  0  0  0  0  0  0
   -2.6402    0.4650   -0.4164 H   0  0  0  0  0  0  0  0  0  0  0  0
  1  8  1  0  0  0  0
  1  2  1  0  0  0  0
  2 12  1  0  0  0  0
  2 11  1  0  0  0  0
  3  2  1  0  0  0  0
  3  4  1  0  0  0  0
  4 14  1  0  0  0  0
  5  4  1  0  0  0  0
  5 17  1  0  0  0  0
  5 16  1  0  0  0  0
  6  3  1  0  0  0  0
  6 19  1  0  0  0  0
  7 22  1  0  0  0  0
  7  6  1  0  0  0  0
  9  1  1  0  0  0  0
 10  1  1  0  0  0  0
 13  4  1  0  0  0  0
 15  5  1  0  0  0  0
 18  6  1  0  0  0  0
 20  7  1  0  0  0  0
 21  7  1  0  0  0  0
M  END
