D2
 OpenBabel03112416463D

 22 23  0  0  0  0  0  0  0  0999 V2000
    0.7428    0.0000    0.0000 C   0  0  0  0  0  0  0  0  0  0  0  0
   -0.7428    0.0000    0.0000 C   0  0  0  0  0  0  0  0  0  0  0  0
   -1.4639   -0.4164    1.1287 C   0  0  0  0  0  0  0  0  0  0  0  0
    1.4639    0.4164    1.1287 C   0  0  0  0  0  0  0  0  0  0  0  0
   -1.4639    0.4164   -1.1287 C   0  0  0  0  0  0  0  0  0  0  0  0
    1.4639   -0.4164   -1.1287 C   0  0  0  0  0  0  0  0  0  0  0  0
   -2.8555   -0.4165    1.1289 C   0  0  0  0  0  0  0  0  0  0  0  0
   -2.8555    0.4165   -1.1289 C   0  0  0  0  0  0  0  0  0  0  0  0
    2.8555    0.4165    1.1289 C   0  0  0  0  0  0  0  0  0  0  0  0
    2.8555   -0.4165   -1.1289 C   0  0  0  0  0  0  0  0  0  0  0  0
   -3.5579    0.0000    0.0000 C   0  0  0  0  0  0  0  0  0  0  0  0
    3.5579    0.0000    0.0000 C   0  0  0  0  0  0  0  0  0  0  0  0
   -4.6420    0.0000    0.0000 H   0  0  0  0  0  0  0  0  0  0  0  0
    4.6420    0.0000    0.0000 H   0  0  0  0  0  0  0  0  0  0  0  0
   -0.9280   -0.7666    2.0037 H   0  0  0  0  0  0  0  0  0  0  0  0
   -0.9280    0.7666   -2.0037 H   0  0  0  0  0  0  0  0  0  0  0  0
    0.9280    0.7666    2.0037 H   0  0  0  0  0  0  0  0  0  0  0  0
    0.9280   -0.7666   -2.0037 H   0  0  0  0  0  0  0  0  0  0  0  0
   -3.3921   -0.7509    2.0100 H   0  0  0  0  0  0  0  0  0  0  0  0
   -3.3921    0.7509   -2.0100 H   0  0  0  0  0  0  0  0  0  0  0  0
    3.3921    0.7509    2.0100 H   0  0  0  0  0  0  0  0  0  0  0  0
    3.3921   -0.7509   -2.0100 H   0  0  0  0  0  0  0  0  0  0  0  0
  1  2  1  0  0  0  0
  1  4  1  0  0  0  0
  2  3  1  0  0  0  0
  3  7  2  0  0  0  0
  3 15  1  0  0  0  0
  4  9  2  0  0  0  0
  4 17  1  0  0  0  0
  5  2  2  0  0  0  0
  6  1  2  0  0  0  0
  7 19  1  0  0  0  0
  8  5  1  0  0  0  0
  8 11  2  0  0  0  0
  9 21  1  0  0  0  0
 10  6  1  0  0  0  0
 10 12  2  0  0  0  0
 11  7  1  0  0  0  0
 12 14  1  0  0  0  0
 12  9  1  0  0  0  0
 13 11  1  0  0  0  0
 16  5  1  0  0  0  0
 18  6  1  0  0  0  0
 20  8  1  0  0  0  0
 22 10  1  0  0  0  0
M  END
