D4h
 OpenBabel03112416553D

  4  4  0  0  0  0  0  0  0  0999 V2000
    1.8371    0.0000    0.0000 Al  0  0  0  0  0  2  0  0  0  0  0  0
    0.0000   -1.8371    0.0000 Al  0  0  0  0  0  2  0  0  0  0  0  0
    0.0000    1.8371    0.0000 Al  0  0  0  0  0  2  0  0  0  0  0  0
   -1.8371    0.0000    0.0000 Al  0  0  0  0  0  2  0  0  0  0  0  0
  1  2  1  0  0  0  0
  1  3  1  0  0  0  0
  2  4  1  0  0  0  0
  3  4  1  0  0  0  0
M  END
