D8d
 OpenBabel03112417083D

 33 38  0  0  1  0  0  0  0  0999 V2000
    0.0000    0.0000    0.0000 U   0  0  0  0  0  0  0  0  0  0  0  0
    1.7840    0.3549    1.7750 C   0  0  1  0  0  0  0  0  0  0  0  0
    1.0106    1.5124    1.7750 C   0  0  0  0  0  3  0  0  0  0  0  0
   -0.3549    1.7840    1.7750 C   0  0  2  0  0  0  0  0  0  0  0  0
   -1.5124    1.0106    1.7750 C   0  0  0  0  0  3  0  0  0  0  0  0
   -1.7840   -0.3549    1.7750 C   0  0  2  0  0  0  0  0  0  0  0  0
   -1.0106   -1.5124    1.7750 C   0  0  0  0  0  3  0  0  0  0  0  0
    0.3549   -1.7840    1.7750 C   0  0  2  0  0  0  0  0  0  0  0  0
    1.5124   -1.0106    1.7750 C   0  0  0  0  0  3  0  0  0  0  0  0
    2.8633    0.5695    1.7750 H   0  0  0  0  0  0  0  0  0  0  0  0
    1.6219    2.4274    1.7750 H   0  0  0  0  0  0  0  0  0  0  0  0
   -0.5695    2.8633    1.7750 H   0  0  0  0  0  0  0  0  0  0  0  0
   -2.4274    1.6219    1.7750 H   0  0  0  0  0  0  0  0  0  0  0  0
   -2.8633   -0.5695    1.7750 H   0  0  0  0  0  0  0  0  0  0  0  0
   -1.6219   -2.4274    1.7750 H   0  0  0  0  0  0  0  0  0  0  0  0
    0.5695   -2.8633    1.7750 H   0  0  0  0  0  0  0  0  0  0  0  0
    2.4274   -1.6219    1.7750 H   0  0  0  0  0  0  0  0  0  0  0  0
    1.7840   -0.3549   -1.7750 C   0  0  0  0  0  0  0  0  0  0  0  0
    1.0106   -1.5124   -1.7750 C   0  0  0  0  0  3  0  0  0  0  0  0
   -0.3549   -1.7840   -1.7750 C   0  0  0  0  0  0  0  0  0  0  0  0
   -1.5124   -1.0106   -1.7750 C   0  0  0  0  0  0  0  0  0  0  0  0
   -1.7840    0.3549   -1.7750 C   0  0  2  0  0  0  0  0  0  0  0  0
   -1.0106    1.5124   -1.7750 C   0  0  0  0  0  3  0  0  0  0  0  0
    0.3549    1.7840   -1.7750 C   0  0  2  0  0  0  0  0  0  0  0  0
    1.5124    1.0106   -1.7750 C   0  0  0  0  0  0  0  0  0  0  0  0
    2.8633   -0.5695   -1.7750 H   0  0  0  0  0  0  0  0  0  0  0  0
    1.6219   -2.4274   -1.7750 H   0  0  0  0  0  0  0  0  0  0  0  0
   -0.5695   -2.8633   -1.7750 H   0  0  0  0  0  0  0  0  0  0  0  0
   -2.4274   -1.6219   -1.7750 H   0  0  0  0  0  0  0  0  0  0  0  0
   -2.8633    0.5695   -1.7750 H   0  0  0  0  0  0  0  0  0  0  0  0
   -1.6219    2.4274   -1.7750 H   0  0  0  0  0  0  0  0  0  0  0  0
    0.5695    2.8633   -1.7750 H   0  0  0  0  0  0  0  0  0  0  0  0
    2.4274    1.6219   -1.7750 H   0  0  0  0  0  0  0  0  0  0  0  0
  1  8  1  0  0  0  0
  1  6  1  0  0  0  0
  1  4  1  0  0  0  0
  1  2  1  0  0  0  0
  2 10  1  6  0  0  0
  3  2  1  0  0  0  0
  4 12  1  6  0  0  0
  4  3  1  0  0  0  0
  5  4  1  0  0  0  0
  6 14  1  6  0  0  0
  6  5  1  0  0  0  0
  7  6  1  0  0  0  0
  8 16  1  6  0  0  0
  8  7  1  0  0  0  0
  9  8  1  0  0  0  0
  9  2  1  0  0  0  0
 11  3  1  0  0  0  0
 13  5  1  0  0  0  0
 15  7  1  0  0  0  0
 17  9  1  0  0  0  0
 18 19  1  0  0  0  0
 18 26  1  0  0  0  0
 19 20  1  0  0  0  0
 19 27  1  0  0  0  0
 20 21  2  0  0  0  0
 20 28  1  0  0  0  0
 21 22  1  0  0  0  0
 21 29  1  0  0  0  0
 22 23  1  0  0  0  0
 22 30  1  1  0  0  0
 22  1  1  0  0  0  0
 23 24  1  0  0  0  0
 23 31  1  0  0  0  0
 24 32  1  1  0  0  0
 24  1  1  0  0  0  0
 25 18  2  0  0  0  0
 25 24  1  0  0  0  0
 25 33  1  0  0  0  0
M  END
