D8h
 OpenBabel03112417023D

 16 16  0  0  0  0  0  0  0  0999 V2000
    1.8491    0.0000    0.0000 C   0  0  0  0  0  0  0  0  0  0  0  0
    1.3075   -1.3075    0.0000 C   0  0  0  0  0  0  0  0  0  0  0  0
    0.0000   -1.8491    0.0000 C   0  0  0  0  0  0  0  0  0  0  0  0
   -1.3075   -1.3075    0.0000 C   0  0  0  0  0  0  0  0  0  0  0  0
   -1.8491    0.0000    0.0000 C   0  0  0  0  0  0  0  0  0  0  0  0
   -1.3075    1.3075    0.0000 C   0  0  0  0  0  0  0  0  0  0  0  0
    0.0000    1.8491    0.0000 C   0  0  0  0  0  0  0  0  0  0  0  0
    1.3075    1.3075    0.0000 C   0  0  0  0  0  0  0  0  0  0  0  0
    2.9495    0.0000    0.0000 H   0  0  0  0  0  0  0  0  0  0  0  0
    2.0856   -2.0856    0.0000 H   0  0  0  0  0  0  0  0  0  0  0  0
    0.0000   -2.9495    0.0000 H   0  0  0  0  0  0  0  0  0  0  0  0
   -2.0856   -2.0856    0.0000 H   0  0  0  0  0  0  0  0  0  0  0  0
   -2.9495    0.0000    0.0000 H   0  0  0  0  0  0  0  0  0  0  0  0
   -2.0856    2.0856    0.0000 H   0  0  0  0  0  0  0  0  0  0  0  0
    0.0000    2.9495    0.0000 H   0  0  0  0  0  0  0  0  0  0  0  0
    2.0856    2.0856    0.0000 H   0  0  0  0  0  0  0  0  0  0  0  0
  1  2  1  0  0  0  0
  1  8  2  0  0  0  0
  1  9  1  0  0  0  0
  2  3  2  0  0  0  0
  2 10  1  0  0  0  0
  3  4  1  0  0  0  0
  3 11  1  0  0  0  0
  4  5  2  0  0  0  0
  4 12  1  0  0  0  0
  5  6  1  0  0  0  0
  5 13  1  0  0  0  0
  6  7  2  0  0  0  0
  6 14  1  0  0  0  0
  7  8  1  0  0  0  0
  7 15  1  0  0  0  0
  8 16  1  0  0  0  0
M  END
