F5P
APtclcactv03182421513D 0   0.00000     0.00000
 
  6  5  0  0  0  0  0  0  0  0999 V2000
   -0.0000    0.0000   -0.0000 P   0  0  0  0  0  0  0  0  0  0  0  0
   -1.6700    0.0000   -0.0000 F   0  0  0  0  0  0  0  0  0  0  0  0
    1.6700    0.0000    0.0000 F   0  0  0  0  0  0  0  0  0  0  0  0
    0.0000    1.6700    0.0000 F   0  0  0  0  0  0  0  0  0  0  0  0
    0.0000   -0.8350    1.4463 F   0  0  0  0  0  0  0  0  0  0  0  0
    0.0000   -0.8350   -1.4463 F   0  0  0  0  0  0  0  0  0  0  0  0
  1  2  1  0  0  0  0
  1  3  1  0  0  0  0
  1  4  1  0  0  0  0
  1  5  1  0  0  0  0
  1  6  1  0  0  0  0
M  END
$$$$
